@<TRIPOS>MOLECULE
ZINC000129072113
48    51    1     0     0
SMALL
USER_CHARGES
@<TRIPOS>ATOM
1      O1     -0.1574    0.2612   -1.1124 O.2      1 ZINC000129072113   -0.5100
2      C2     -0.0974    1.3468   -0.5748 C.2      1 ZINC000129072113    0.5100
3      C3      1.1978    2.1172   -0.5750 C.3      1 ZINC000129072113   -0.1000
4      C4      2.2534    1.3249   -1.3023 C.ar     1 ZINC000129072113   -0.0700
5      C5      3.0477    0.4266   -0.5928 C.ar     1 ZINC000129072113   -0.1000
6      C6      4.0100   -0.3045   -1.2193 C.ar     1 ZINC000129072113   -0.1000
7      C7      4.2079   -0.1534   -2.6020 C.ar     1 ZINC000129072113   -0.0500
8      C8      5.1911   -0.8910   -3.2837 C.ar     1 ZINC000129072113   -0.1100
9      C9      5.3539   -0.7186   -4.6237 C.ar     1 ZINC000129072113   -0.1200
10     C10     4.5594    0.1801   -5.3335 C.ar     1 ZINC000129072113   -0.1200
11     C11     3.5977    0.9114   -4.7071 C.ar     1 ZINC000129072113   -0.1100
12     C12     3.3999    0.7605   -3.3239 C.ar     1 ZINC000129072113   -0.0500
13     C13     2.4129    1.4936   -2.6437 C.ar     1 ZINC000129072113   -0.0900
14     N14    -1.1906    1.8666    0.0178 N.am     1 ZINC000129072113   -0.6800
15     C15    -2.4178    1.2002   -0.0703 C.ar     1 ZINC000129072113    0.1500
16     C16    -2.4577   -0.1879   -0.0661 C.ar     1 ZINC000129072113   -0.1200
17     C17    -3.6706   -0.8427   -0.1532 C.ar     1 ZINC000129072113   -0.0700
18     C18    -4.8444   -0.1175   -0.2451 C.ar     1 ZINC000129072113   -0.1100
19     C19    -6.1661   -0.8353   -0.3405 C.3      1 ZINC000129072113   -0.0600
20     C20    -6.7213   -1.0707    1.0656 C.3      1 ZINC000129072113   -0.1200
21     H21    -6.7759   -0.1322    1.6174 H        1 ZINC000129072113    0.1300
22     C22    -8.1086   -1.7409    0.9962 C.3      1 ZINC000129072113   -0.1600
23     C23    -7.9013   -3.0598    1.7083 C.2      1 ZINC000129072113    0.5300
24     O24    -8.7520   -3.9061    1.8806 O.2      1 ZINC000129072113   -0.4800
25     N25    -6.6294   -3.1443    2.1176 N.am     1 ZINC000129072113   -0.6800
26     C26    -5.8736   -2.0783    1.8111 C.2      1 ZINC000129072113    0.5300
27     O27    -4.7001   -1.9473    2.0855 O.2      1 ZINC000129072113   -0.4600
28     C28    -4.8082    1.2648   -0.2491 C.ar     1 ZINC000129072113   -0.0900
29     C29    -3.5989    1.9256   -0.1564 C.ar     1 ZINC000129072113   -0.1500
30     H30     1.0515    3.0738   -1.0766 H        1 ZINC000129072113    0.1100
31     H31     1.5174    2.2909    0.4525 H        1 ZINC000129072113    0.1100
32     H32     2.8979    0.3088    0.4703 H        1 ZINC000129072113    0.1200
33     H33     4.6185   -0.9968   -0.6563 H        1 ZINC000129072113    0.1300
34     H34     5.8143   -1.5908   -2.7467 H        1 ZINC000129072113    0.1300
35     H35     6.1103   -1.2864   -5.1450 H        1 ZINC000129072113    0.1200
36     H36     4.7095    0.2982   -6.3965 H        1 ZINC000129072113    0.1200
37     H37     2.9898    1.6043   -5.2700 H        1 ZINC000129072113    0.1300
38     H38     1.7867    2.1900   -3.1815 H        1 ZINC000129072113    0.1200
39     H39    -1.1266    2.7027    0.5055 H        1 ZINC000129072113    0.4100
40     H40    -1.5412   -0.7549    0.0049 H        1 ZINC000129072113    0.1400
41     H41    -3.7023   -1.9222   -0.1500 H        1 ZINC000129072113    0.1200
42     H42    -6.8687   -0.2284   -0.9117 H        1 ZINC000129072113    0.1000
43     H43    -6.0239   -1.7935   -0.8401 H        1 ZINC000129072113    0.0800
44     H44    -8.8528   -1.1373    1.5158 H        1 ZINC000129072113    0.1200
45     H45    -8.4032   -1.9066   -0.0400 H        1 ZINC000129072113    0.1300
46     H46    -6.2824   -3.9123    2.5977 H        1 ZINC000129072113    0.4200
47     H47    -5.7267    1.8283   -0.3209 H        1 ZINC000129072113    0.1300
48     H48    -3.5712    3.0052   -0.1596 H        1 ZINC000129072113    0.1200
@<TRIPOS>BOND
1     1     2     2
2     2     3     1
3     2     14    am
4     3     4     1
5     3     30    1
6     3     31    1
7     4     13    ar
8     4     5     ar
9     5     6     ar
10    5     32    1
11    6     7     ar
12    6     33    1
13    7     12    ar
14    7     8     ar
15    8     9     ar
16    8     34    1
17    9     10    ar
18    9     35    1
19    10    11    ar
20    10    36    1
21    11    12    ar
22    11    37    1
23    12    13    ar
24    13    38    1
25    14    15    1
26    14    39    1
27    15    29    ar
28    15    16    ar
29    16    17    ar
30    16    40    1
31    17    18    ar
32    17    41    1
33    18    19    1
34    18    28    ar
35    19    20    1
36    19    42    1
37    19    43    1
38    20    21    1
39    20    26    1
40    20    22    1
41    22    23    1
42    22    44    1
43    22    45    1
44    23    24    2
45    23    25    am
46    25    26    am
47    25    46    1
48    26    27    2
49    28    29    ar
50    28    47    1
51    29    48    1
@<TRIPOS>SUBSTRUCTURE
1   ZINC000129072113 1     RESIDUE    1   A     ZIN   1

