@<TRIPOS>MOLECULE
ZINC000001109308
49    51    1     0     0
SMALL
USER_CHARGES
@<TRIPOS>ATOM
1      C1     -0.2431    1.7417    0.1814 C.3      1 ZINC000001109308   -0.1200
2      C2     -0.7735    0.3314    0.2065 C.ar     1 ZINC000001109308   -0.0400
3      C3     -1.3513   -0.2096   -0.9272 C.ar     1 ZINC000001109308   -0.1600
4      C4     -1.8388   -1.5033   -0.9073 C.ar     1 ZINC000001109308   -0.0400
5      C5     -2.4684   -2.0897   -2.1446 C.3      1 ZINC000001109308   -0.1200
6      C6     -1.7490   -2.2590    0.2457 C.ar     1 ZINC000001109308   -0.1500
7      C7     -1.1694   -1.7186    1.3844 C.ar     1 ZINC000001109308    0.1300
8      O8     -1.0793   -2.4601    2.5197 O.3      1 ZINC000001109308   -0.2900
9      C9     -0.4705   -1.8390    3.6536 C.3      1 ZINC000001109308    0.0400
10     C10    -0.4593   -2.8054    4.8099 C.2      1 ZINC000001109308    0.5200
11     O11    -0.9267   -3.9167    4.6761 O.2      1 ZINC000001109308   -0.4900
12     N12     0.0700   -2.4349    5.9927 N.am     1 ZINC000001109308   -0.6700
13     C13    -0.0179   -3.2909    7.0986 C.ar     1 ZINC000001109308    0.1800
14     C14    -0.1981   -2.7648    8.3711 C.ar     1 ZINC000001109308   -0.1500
15     C15    -0.2843   -3.6077    9.4608 C.ar     1 ZINC000001109308   -0.0400
16     C16    -0.1912   -4.9828    9.2843 C.ar     1 ZINC000001109308   -0.1800
17     S17    -0.3018   -6.0592   10.6748 S.3      1 ZINC000001109308    0.0400
18     C18     1.3693   -6.1732   11.2217 C.ar     1 ZINC000001109308   -0.0600
19     C19     2.3833   -5.5607   10.4950 C.ar     1 ZINC000001109308   -0.1300
20     C20     3.6918   -5.6522   10.9265 C.ar     1 ZINC000001109308   -0.0300
21     C21     3.9938   -6.3524   12.0804 C.ar     1 ZINC000001109308   -0.0600
22     N22     5.3978   -6.4478   12.5401 N.pl3    1 ZINC000001109308    0.0300
23     O23     6.2853   -5.9101   11.9023 O.2      1 ZINC000001109308   -0.1600
24     O24     5.6654   -7.0641   13.5560 O.2      1 ZINC000001109308   -0.1600
25     C25     2.9873   -6.9633   12.8061 C.ar     1 ZINC000001109308   -0.0300
26     C26     1.6759   -6.8711   12.3838 C.ar     1 ZINC000001109308   -0.1000
27     C27    -0.0114   -5.5088    8.0108 C.ar     1 ZINC000001109308   -0.0400
28     C28     0.0695   -4.6655    6.9210 C.ar     1 ZINC000001109308   -0.1300
29     C29    -0.6769   -0.4218    1.3606 C.ar     1 ZINC000001109308   -0.2200
30     H30     0.8014    1.7316   -0.1300 H        1 ZINC000001109308    0.0700
31     H31    -0.8260    2.3367   -0.5218 H        1 ZINC000001109308    0.0700
32     H32    -0.3211    2.1771    1.1776 H        1 ZINC000001109308    0.0700
33     H33    -1.4221    0.3794   -1.8296 H        1 ZINC000001109308    0.1300
34     H34    -1.7022   -2.5817   -2.7438 H        1 ZINC000001109308    0.0800
35     H35    -3.2270   -2.8173   -1.8563 H        1 ZINC000001109308    0.0700
36     H36    -2.9312   -1.2942   -2.7286 H        1 ZINC000001109308    0.0700
37     H37    -2.1300   -3.2694    0.2607 H        1 ZINC000001109308    0.1300
38     H38     0.5527   -1.5557    3.4069 H        1 ZINC000001109308    0.1000
39     H39    -1.0375   -0.9497    3.9288 H        1 ZINC000001109308    0.1000
40     H40     0.5119   -1.5756    6.0784 H        1 ZINC000001109308    0.4200
41     H41    -0.2704   -1.6960    8.5082 H        1 ZINC000001109308    0.1400
42     H42    -0.4237   -3.1984   10.4504 H        1 ZINC000001109308    0.1400
43     H43     2.1483   -5.0141    9.5937 H        1 ZINC000001109308    0.1500
44     H44     4.4803   -5.1768   10.3622 H        1 ZINC000001109308    0.1600
45     H45     3.2268   -7.5095   13.7065 H        1 ZINC000001109308    0.1600
46     H46     0.8904   -7.3484   12.9509 H        1 ZINC000001109308    0.1500
47     H47     0.0610   -6.5776    7.8732 H        1 ZINC000001109308    0.1400
48     H48     0.2093   -5.0743    5.9312 H        1 ZINC000001109308    0.1500
49     H49    -0.2249    0.0010    2.2456 H        1 ZINC000001109308    0.1300
@<TRIPOS>BOND
1     1     2     1
2     1     30    1
3     1     31    1
4     1     32    1
5     2     29    ar
6     2     3     ar
7     3     4     ar
8     3     33    1
9     4     5     1
10    4     6     ar
11    5     34    1
12    5     35    1
13    5     36    1
14    6     7     ar
15    6     37    1
16    7     8     1
17    7     29    ar
18    8     9     1
19    9     10    1
20    9     38    1
21    9     39    1
22    10    11    2
23    10    12    am
24    12    13    1
25    12    40    1
26    13    28    ar
27    13    14    ar
28    14    15    ar
29    14    41    1
30    15    16    ar
31    15    42    1
32    16    17    1
33    16    27    ar
34    17    18    1
35    18    26    ar
36    18    19    ar
37    19    20    ar
38    19    43    1
39    20    21    ar
40    20    44    1
41    21    22    1
42    21    25    ar
43    22    23    2
44    22    24    2
45    25    26    ar
46    25    45    1
47    26    46    1
48    27    28    ar
49    27    47    1
50    28    48    1
51    29    49    1
@<TRIPOS>SUBSTRUCTURE
1   ZINC000001109308 1     RESIDUE    1   A     ZIN   1

