@<TRIPOS>MOLECULE
ZINC000000716050
45    48    1     0     0
SMALL
USER_CHARGES
@<TRIPOS>ATOM
1      O1      0.0153   -0.0001    0.2504 O.2      1 ZINC000000716050   -0.5000
2      C2     -0.0091    1.2124    0.1410 C.2      1 ZINC000000716050    0.5400
3      C3     -1.2772    1.9549    0.1590 C.ar     1 ZINC000000716050   -0.1900
4      C4     -2.5053    1.3123    0.3013 C.ar     1 ZINC000000716050   -0.0400
5      C5     -3.6642    2.0576    0.3121 C.ar     1 ZINC000000716050   -0.1300
6      C6     -3.6167    3.4393    0.1822 C.ar     1 ZINC000000716050   -0.0700
7      C7     -2.4135    4.0938    0.0405 C.ar     1 ZINC000000716050   -0.1000
8      C8     -1.2250    3.3611    0.0271 C.ar     1 ZINC000000716050    0.1500
9      N9     -0.0187    3.9648   -0.1106 N.2      1 ZINC000000716050   -0.4800
10     C10     1.0866    3.2825   -0.1235 C.2      1 ZINC000000716050    0.4000
11     C11     2.3862    4.0291   -0.2800 C.3      1 ZINC000000716050    0.1200
12     O12     2.1211    5.4290   -0.3898 O.3      1 ZINC000000716050   -0.2800
13     C13     3.1937    6.2503   -0.5377 C.ar     1 ZINC000000716050    0.1300
14     C14     4.4746    5.7192   -0.5822 C.ar     1 ZINC000000716050   -0.2100
15     C15     5.5632    6.5562   -0.7331 C.ar     1 ZINC000000716050   -0.0800
16     C16     5.3771    7.9221   -0.8393 C.ar     1 ZINC000000716050   -0.1600
17     C17     4.1016    8.4539   -0.7948 C.ar     1 ZINC000000716050   -0.0800
18     C18     3.0093    7.6207   -0.6502 C.ar     1 ZINC000000716050   -0.1500
19     N19     1.1308    1.9289    0.0037 N.am     1 ZINC000000716050   -0.4100
20     N20     2.3667    1.2694   -0.0203 N.2      1 ZINC000000716050   -0.2600
21     C21     2.6560    0.4674   -1.0002 C.2      1 ZINC000000716050    0.2000
22     C22     3.9047   -0.3132   -0.9689 C.ar     1 ZINC000000716050   -0.1100
23     C23     4.2226   -1.1725   -2.0234 C.ar     1 ZINC000000716050   -0.0600
24     C24     5.3936   -1.9000   -1.9879 C.ar     1 ZINC000000716050   -0.1400
25     C25     6.2560   -1.7830   -0.9113 C.ar     1 ZINC000000716050   -0.0700
26     C26     5.9532   -0.9363    0.1384 C.ar     1 ZINC000000716050   -0.1600
27     C27     4.7842   -0.1936    0.1168 C.ar     1 ZINC000000716050    0.1600
28     O28     4.4858    0.6384    1.1475 O.3      1 ZINC000000716050   -0.4700
29     H29    -2.5486    0.2378    0.4020 H        1 ZINC000000716050    0.1400
30     H30    -4.6178    1.5627    0.4222 H        1 ZINC000000716050    0.1400
31     H31    -4.5349    4.0076    0.1920 H        1 ZINC000000716050    0.1400
32     H32    -2.3892    5.1689   -0.0593 H        1 ZINC000000716050    0.1400
33     H33     3.0175    3.8459    0.5895 H        1 ZINC000000716050    0.1000
34     H34     2.8972    3.6845   -1.1791 H        1 ZINC000000716050    0.0900
35     H35     4.6206    4.6524   -0.4986 H        1 ZINC000000716050    0.1300
36     H36     6.5606    6.1432   -0.7678 H        1 ZINC000000716050    0.1300
37     H37     6.2295    8.5748   -0.9569 H        1 ZINC000000716050    0.1200
38     H38     3.9589    9.5212   -0.8776 H        1 ZINC000000716050    0.1300
39     H39     2.0131    8.0366   -0.6155 H        1 ZINC000000716050    0.1300
40     H40     1.9809    0.3729   -1.8379 H        1 ZINC000000716050    0.1200
41     H41     3.5523   -1.2672   -2.8648 H        1 ZINC000000716050    0.1400
42     H42     5.6388   -2.5642   -2.8035 H        1 ZINC000000716050    0.1400
43     H43     7.1706   -2.3570   -0.8913 H        1 ZINC000000716050    0.1300
44     H44     6.6311   -0.8505    0.9748 H        1 ZINC000000716050    0.1400
45     H45     4.8249    1.5373    1.0381 H        1 ZINC000000716050    0.3900
@<TRIPOS>BOND
1     1     2     2
2     2     19    am
3     2     3     1
4     3     8     ar
5     3     4     ar
6     4     5     ar
7     4     29    1
8     5     6     ar
9     5     30    1
10    6     7     ar
11    6     31    1
12    7     8     ar
13    7     32    1
14    8     9     1
15    9     10    2
16    10    11    1
17    10    19    1
18    11    12    1
19    11    33    1
20    11    34    1
21    12    13    1
22    13    18    ar
23    13    14    ar
24    14    15    ar
25    14    35    1
26    15    16    ar
27    15    36    1
28    16    17    ar
29    16    37    1
30    17    18    ar
31    17    38    1
32    18    39    1
33    19    20    1
34    20    21    2
35    21    22    1
36    21    40    1
37    22    27    ar
38    22    23    ar
39    23    24    ar
40    23    41    1
41    24    25    ar
42    24    42    1
43    25    26    ar
44    25    43    1
45    26    27    ar
46    26    44    1
47    27    28    1
48    28    45    1
@<TRIPOS>SUBSTRUCTURE
1   ZINC000000716050 1     RESIDUE    1   A     ZIN   1

