@<TRIPOS>MOLECULE
ZINC000129089119
46    48    1     0     0
SMALL
USER_CHARGES
@<TRIPOS>ATOM
1      C1     -0.0455    1.4608    0.0141 C.3      1 ZINC000129089119    0.0200
2      O2     -0.0167    0.0322    0.0014 O.3      1 ZINC000129089119   -0.3100
3      C3     -1.2157   -0.6095    0.0096 C.ar     1 ZINC000129089119    0.1100
4      C4     -2.3933    0.1198    0.0236 C.ar     1 ZINC000129089119   -0.1800
5      C5     -3.6117   -0.5343    0.0314 C.ar     1 ZINC000129089119   -0.0900
6      C6     -3.6580   -1.9156    0.0257 C.ar     1 ZINC000129089119   -0.1100
7      C7     -4.9884   -2.6233    0.0348 C.3      1 ZINC000129089119    0.1800
8      N8     -5.4322   -2.8465   -1.3434 N.am     1 ZINC000129089119   -0.7400
9      C9     -6.6043   -3.4677   -1.5817 C.2      1 ZINC000129089119    0.7000
10     O10    -7.2934   -3.8428   -0.6529 O.2      1 ZINC000129089119   -0.5700
11     N11    -7.0126   -3.6730   -2.8496 N.am     1 ZINC000129089119   -0.6900
12     C12    -8.1801   -4.4022   -3.0991 C.ar     1 ZINC000129089119    0.1700
13     C13    -9.2614   -4.2981   -2.2327 C.ar     1 ZINC000129089119   -0.1200
14     C14   -10.4132   -5.0158   -2.4766 C.ar     1 ZINC000129089119   -0.0700
15     C15   -10.4924   -5.8458   -3.5934 C.ar     1 ZINC000129089119   -0.0400
16     C16   -11.7311   -6.6189   -3.8583 C.2      1 ZINC000129089119    0.1200
17     N17   -12.8236   -6.6065   -3.1242 N.2      1 ZINC000129089119   -0.2900
18     N18   -13.7552   -7.4693   -3.7155 N.pl3    1 ZINC000129089119   -0.4800
19     C19   -13.1934   -7.9995   -4.8231 C.2      1 ZINC000129089119    0.0600
20     C20   -11.9477   -7.4910   -4.9430 C.2      1 ZINC000129089119   -0.2600
21     C21    -9.4068   -5.9483   -4.4613 C.ar     1 ZINC000129089119   -0.0700
22     C22    -8.2587   -5.2250   -4.2161 C.ar     1 ZINC000129089119   -0.1500
23     C23    -2.4861   -2.6497    0.0112 C.ar     1 ZINC000129089119   -0.1500
24     C24    -1.2624   -2.0007   -0.0020 C.ar     1 ZINC000129089119    0.1000
25     O25    -0.1091   -2.7211   -0.0162 O.3      1 ZINC000129089119   -0.3100
26     C26    -0.2333   -4.1447   -0.0167 C.3      1 ZINC000129089119    0.0300
27     H27     0.9746    1.8448    0.0057 H        1 ZINC000129089119    0.1000
28     H28    -0.5767    1.8214   -0.8668 H        1 ZINC000129089119    0.0600
29     H29    -0.5563    1.8060    0.9130 H        1 ZINC000129089119    0.0600
30     H30    -2.3599    1.1993    0.0288 H        1 ZINC000129089119    0.1400
31     H31    -4.5291    0.0355    0.0423 H        1 ZINC000129089119    0.1300
32     H32    -4.8866   -3.5819    0.5434 H        1 ZINC000129089119    0.0800
33     H33    -5.7224   -2.0105    0.5581 H        1 ZINC000129089119    0.0800
34     H34    -4.8825   -2.5472   -2.0845 H        1 ZINC000129089119    0.4000
35     H35    -6.4969   -3.3152   -3.5892 H        1 ZINC000129089119    0.4100
36     H36    -9.1996   -3.6548   -1.3673 H        1 ZINC000129089119    0.1400
37     H37   -11.2531   -4.9352   -1.8025 H        1 ZINC000129089119    0.1300
38     H38   -14.6487   -7.6543   -3.3862 H        1 ZINC000129089119    0.4400
39     H39   -13.6597   -8.7029   -5.4971 H        1 ZINC000129089119    0.1800
40     H40   -11.2407   -7.7183   -5.7272 H        1 ZINC000129089119    0.1500
41     H41    -9.4660   -6.5909   -5.3273 H        1 ZINC000129089119    0.1300
42     H42    -7.4173   -5.3038   -4.8886 H        1 ZINC000129089119    0.1300
43     H43    -2.5251   -3.7290    0.0068 H        1 ZINC000129089119    0.1400
44     H44     0.7588   -4.5960   -0.0287 H        1 ZINC000129089119    0.1000
45     H45    -0.7665   -4.4631    0.8791 H        1 ZINC000129089119    0.0600
46     H46    -0.7870   -4.4608   -0.9008 H        1 ZINC000129089119    0.0600
@<TRIPOS>BOND
1     1     2     1
2     1     27    1
3     1     28    1
4     1     29    1
5     2     3     1
6     3     24    ar
7     3     4     ar
8     4     5     ar
9     4     30    1
10    5     6     ar
11    5     31    1
12    6     7     1
13    6     23    ar
14    7     8     1
15    7     32    1
16    7     33    1
17    8     9     am
18    8     34    1
19    9     10    2
20    9     11    am
21    11    12    1
22    11    35    1
23    12    22    ar
24    12    13    ar
25    13    14    ar
26    13    36    1
27    14    15    ar
28    14    37    1
29    15    16    1
30    15    21    ar
31    16    20    1
32    16    17    2
33    17    18    1
34    18    19    1
35    18    38    1
36    19    20    2
37    19    39    1
38    20    40    1
39    21    22    ar
40    21    41    1
41    22    42    1
42    23    24    ar
43    23    43    1
44    24    25    1
45    25    26    1
46    26    44    1
47    26    45    1
48    26    46    1
@<TRIPOS>SUBSTRUCTURE
1   ZINC000129089119 1     RESIDUE    1   A     ZIN   1

