@<TRIPOS>MOLECULE
ZINC000002633634
47    48    1     0     0
SMALL
USER_CHARGES
@<TRIPOS>ATOM
1      C1      0.0360    1.3394    0.0117 C.3      1 ZINC000002633634    0.0300
2      O2      0.0492   -0.0894   -0.0043 O.3      1 ZINC000002633634   -0.3200
3      C3     -1.1558   -0.7177    0.0043 C.ar     1 ZINC000002633634    0.1300
4      C4     -2.3269    0.0259    0.0219 C.ar     1 ZINC000002633634   -0.2100
5      C5     -3.5506   -0.6151    0.0302 C.ar     1 ZINC000002633634   -0.0700
6      C6     -3.6088   -1.9965    0.0215 C.ar     1 ZINC000002633634   -0.1200
7      C7     -4.9451   -2.6932    0.0310 C.3      1 ZINC000002633634   -0.0800
8      C8     -5.4128   -2.9192   -1.4081 C.3      1 ZINC000002633634    0.1200
9      N9     -6.7118   -3.5964   -1.3988 N.am     1 ZINC000002633634   -0.7300
10     C10    -7.3218   -3.9000   -2.5616 C.2      1 ZINC000002633634    0.5300
11     O11    -6.7954   -3.6125   -3.6157 O.2      1 ZINC000002633634   -0.5100
12     C12    -8.6581   -4.5967   -2.5520 C.3      1 ZINC000002633634   -0.1500
13     S13    -9.2126   -4.8646   -4.2583 S.3      1 ZINC000002633634   -0.0900
14     C14   -10.8086   -5.6992   -4.0424 C.3      1 ZINC000002633634   -0.1500
15     C15   -11.4077   -5.9947   -5.3933 C.2      1 ZINC000002633634    0.5400
16     O16   -10.8162   -5.6739   -6.4024 O.2      1 ZINC000002633634   -0.4900
17     N17   -12.6008   -6.6156   -5.4801 N.am     1 ZINC000002633634   -0.6700
18     C18   -13.2015   -6.8063   -6.7305 C.ar     1 ZINC000002633634    0.1600
19     C19   -12.4168   -7.0555   -7.8480 C.ar     1 ZINC000002633634   -0.1000
20     C20   -13.0117   -7.2434   -9.0807 C.ar     1 ZINC000002633634   -0.0800
21     C21   -14.3886   -7.1829   -9.2026 C.ar     1 ZINC000002633634   -0.0400
22     Cl22  -15.1323   -7.4189  -10.7534 Cl       1 ZINC000002633634   -0.0500
23     C23   -15.1741   -6.9351   -8.0904 C.ar     1 ZINC000002633634   -0.0800
24     C24   -14.5848   -6.7521   -6.8540 C.ar     1 ZINC000002633634   -0.0500
25     Cl25  -15.5703   -6.4418   -5.4589 Cl       1 ZINC000002633634   -0.0500
26     C26    -2.4431   -2.7398    0.0035 C.ar     1 ZINC000002633634   -0.0700
27     C27    -1.2170   -2.1036   -0.0102 C.ar     1 ZINC000002633634   -0.1500
28     H28     1.0602    1.7124    0.0025 H        1 ZINC000002633634    0.1000
29     H29    -0.4926    1.7078   -0.8675 H        1 ZINC000002633634    0.0600
30     H30    -0.4696    1.6881    0.9122 H        1 ZINC000002633634    0.0600
31     H31    -2.2820    1.1049    0.0295 H        1 ZINC000002633634    0.1300
32     H32    -4.4626   -0.0368    0.0439 H        1 ZINC000002633634    0.1300
33     H33    -4.8504   -3.6538    0.5374 H        1 ZINC000002633634    0.0800
34     H34    -5.6731   -2.0755    0.5569 H        1 ZINC000002633634    0.0800
35     H35    -5.5075   -1.9585   -1.9144 H        1 ZINC000002633634    0.0700
36     H36    -4.6848   -3.5368   -1.9340 H        1 ZINC000002633634    0.0700
37     H37    -7.1329   -3.8263   -0.5557 H        1 ZINC000002633634    0.4000
38     H38    -8.5634   -5.5573   -2.0457 H        1 ZINC000002633634    0.1100
39     H39    -9.3861   -3.9790   -2.0262 H        1 ZINC000002633634    0.1100
40     H40   -10.6601   -6.6322   -3.4988 H        1 ZINC000002633634    0.1200
41     H41   -11.4829   -5.0539   -3.4793 H        1 ZINC000002633634    0.1200
42     H42   -13.0434   -6.9303   -4.6764 H        1 ZINC000002633634    0.4200
43     H43   -11.3419   -7.1022   -7.7541 H        1 ZINC000002633634    0.1600
44     H44   -12.4013   -7.4373   -9.9503 H        1 ZINC000002633634    0.1500
45     H45   -16.2487   -6.8884   -8.1882 H        1 ZINC000002633634    0.1500
46     H46    -2.4912   -3.8187   -0.0037 H        1 ZINC000002633634    0.1300
47     H47    -0.3067   -2.6846   -0.0243 H        1 ZINC000002633634    0.1300
@<TRIPOS>BOND
1     1     2     1
2     1     28    1
3     1     29    1
4     1     30    1
5     2     3     1
6     3     27    ar
7     3     4     ar
8     4     5     ar
9     4     31    1
10    5     6     ar
11    5     32    1
12    6     7     1
13    6     26    ar
14    7     8     1
15    7     33    1
16    7     34    1
17    8     9     1
18    8     35    1
19    8     36    1
20    9     10    am
21    9     37    1
22    10    11    2
23    10    12    1
24    12    13    1
25    12    38    1
26    12    39    1
27    13    14    1
28    14    15    1
29    14    40    1
30    14    41    1
31    15    16    2
32    15    17    am
33    17    18    1
34    17    42    1
35    18    24    ar
36    18    19    ar
37    19    20    ar
38    19    43    1
39    20    21    ar
40    20    44    1
41    21    22    1
42    21    23    ar
43    23    24    ar
44    23    45    1
45    24    25    1
46    26    27    ar
47    26    46    1
48    27    47    1
@<TRIPOS>SUBSTRUCTURE
1   ZINC000002633634 1     RESIDUE    1   A     ZIN   1

