@<TRIPOS>MOLECULE
ZINC000129251070
39    40    1     0     0
SMALL
USER_CHARGES
@<TRIPOS>ATOM
1      C1      1.0307   -0.5881   -0.8342 C.3      1 ZINC000129251070    0.0300
2      O2      0.0043   -0.0088   -0.0261 O.3      1 ZINC000129251070   -0.3100
3      C3     -1.2001   -0.6410   -0.0106 C.ar     1 ZINC000129251070    0.0800
4      C4     -1.3857   -1.7965   -0.7532 C.ar     1 ZINC000129251070   -0.1600
5      C5     -2.6088   -2.4392   -0.7385 C.ar     1 ZINC000129251070   -0.0900
6      C6     -3.6527   -1.9283    0.0204 C.ar     1 ZINC000129251070    0.1600
7      N7     -4.8930   -2.5806    0.0354 N.am     1 ZINC000129251070   -0.6800
8      C8     -4.9495   -3.9233   -0.0675 C.2      1 ZINC000129251070    0.7100
9      O9     -3.9237   -4.5761   -0.0759 O.2      1 ZINC000129251070   -0.5700
10     N10    -6.1430   -4.5423   -0.1610 N.am     1 ZINC000129251070   -0.7400
11     C11    -6.2044   -6.0018   -0.2728 C.3      1 ZINC000129251070    0.1100
12     C12    -7.6659   -6.4452   -0.3637 C.3      1 ZINC000129251070    0.1400
13     H13    -8.2189   -6.0510    0.4888 H        1 ZINC000129251070    0.1200
14     O14    -8.2399   -5.9488   -1.5746 O.3      1 ZINC000129251070   -0.5500
15     C15    -7.7356   -7.9506   -0.3550 C.ar     1 ZINC000129251070   -0.0900
16     C16    -7.4783   -8.6605   -1.5128 C.ar     1 ZINC000129251070   -0.1100
17     C17    -7.5412  -10.0416   -1.5067 C.ar     1 ZINC000129251070   -0.0800
18     C18    -7.8622  -10.7143   -0.3420 C.ar     1 ZINC000129251070   -0.0700
19     Cl19   -7.9414  -12.4484   -0.3340 Cl       1 ZINC000129251070   -0.0400
20     C20    -8.1203  -10.0030    0.8192 C.ar     1 ZINC000129251070    0.1200
21     F21    -8.4336  -10.6585    1.9582 F        1 ZINC000129251070   -0.1200
22     C22    -8.0511   -8.6207    0.8122 C.ar     1 ZINC000129251070   -0.1300
23     C23    -3.4677   -0.7709    0.7650 C.ar     1 ZINC000129251070   -0.1500
24     C24    -2.2422   -0.1314    0.7540 C.ar     1 ZINC000129251070    0.0900
25     F25    -2.0611    0.9947    1.4782 F        1 ZINC000129251070   -0.1300
26     H26     1.9367    0.0129   -0.7567 H        1 ZINC000129251070    0.1000
27     H27     1.2362   -1.6015   -0.4892 H        1 ZINC000129251070    0.0600
28     H28     0.7020   -0.6176   -1.8730 H        1 ZINC000129251070    0.0600
29     H29    -0.5739   -2.1947   -1.3439 H        1 ZINC000129251070    0.1400
30     H30    -2.7528   -3.3391   -1.3179 H        1 ZINC000129251070    0.1500
31     H31    -5.7107   -2.0658    0.1198 H        1 ZINC000129251070    0.4100
32     H32    -6.9613   -4.0215   -0.1543 H        1 ZINC000129251070    0.4000
33     H33    -5.6717   -6.3202   -1.1688 H        1 ZINC000129251070    0.0800
34     H34    -5.7417   -6.4532    0.6048 H        1 ZINC000129251070    0.0800
35     H35    -7.7970   -6.2596   -2.3761 H        1 ZINC000129251070    0.3800
36     H36    -7.2282   -8.1358   -2.4230 H        1 ZINC000129251070    0.1400
37     H37    -7.3400  -10.5953   -2.4119 H        1 ZINC000129251070    0.1500
38     H38    -8.2516   -8.0653    1.7165 H        1 ZINC000129251070    0.1500
39     H39    -4.2797   -0.3728    1.3554 H        1 ZINC000129251070    0.1500
@<TRIPOS>BOND
1     1     2     1
2     1     26    1
3     1     27    1
4     1     28    1
5     2     3     1
6     3     24    ar
7     3     4     ar
8     4     5     ar
9     4     29    1
10    5     6     ar
11    5     30    1
12    6     7     1
13    6     23    ar
14    7     8     am
15    7     31    1
16    8     9     2
17    8     10    am
18    10    11    1
19    10    32    1
20    11    12    1
21    11    33    1
22    11    34    1
23    12    13    1
24    12    14    1
25    12    15    1
26    14    35    1
27    15    22    ar
28    15    16    ar
29    16    17    ar
30    16    36    1
31    17    18    ar
32    17    37    1
33    18    19    1
34    18    20    ar
35    20    21    1
36    20    22    ar
37    22    38    1
38    23    24    ar
39    23    39    1
40    24    25    1
@<TRIPOS>SUBSTRUCTURE
1   ZINC000129251070 1     RESIDUE    1   A     ZIN   1

