@<TRIPOS>MOLECULE
ZINC000129195982
53    54    1     0     0
SMALL
USER_CHARGES
@<TRIPOS>ATOM
1      C1     -0.0706    2.3687   -0.0605 C.3      1 ZINC000129195982   -0.1500
2      C2      0.1651    0.8584   -0.1277 C.3      1 ZINC000129195982    0.0500
3      O3     -1.0922    0.1793   -0.1210 O.3      1 ZINC000129195982   -0.3100
4      C4     -1.0605   -1.1782   -0.1764 C.ar     1 ZINC000129195982    0.1500
5      C5      0.1557   -1.8431   -0.2302 C.ar     1 ZINC000129195982   -0.2100
6      C6      0.1852   -3.2233   -0.2861 C.ar     1 ZINC000129195982   -0.0400
7      C7      1.5062   -3.9463   -0.3445 C.3      1 ZINC000129195982   -0.1200
8      C8     -0.9959   -3.9416   -0.2878 C.ar     1 ZINC000129195982   -0.1600
9      C9     -2.2097   -3.2811   -0.2347 C.ar     1 ZINC000129195982   -0.0600
10     C10    -2.2445   -1.9017   -0.1735 C.ar     1 ZINC000129195982   -0.1500
11     C11    -3.5675   -1.1825   -0.1151 C.3      1 ZINC000129195982    0.1900
12     N12    -3.9091   -0.6793   -1.4479 N.am     1 ZINC000129195982   -0.7400
13     C13    -5.0569    0.0012   -1.6376 C.2      1 ZINC000129195982    0.7100
14     O14    -5.8089    0.1975   -0.7025 O.2      1 ZINC000129195982   -0.5900
15     N15    -5.3711    0.4641   -2.8637 N.am     1 ZINC000129195982   -0.7400
16     C16    -6.6187    1.2038   -3.0699 C.3      1 ZINC000129195982    0.2100
17     H17    -7.3952    0.7937   -2.4241 H        1 ZINC000129195982    0.1000
18     C18    -6.3990    2.6792   -2.7298 C.3      1 ZINC000129195982   -0.1600
19     C19    -7.0450    1.0783   -4.5099 C.ar     1 ZINC000129195982   -0.1100
20     C20    -6.0983    1.1287   -5.5166 C.ar     1 ZINC000129195982   -0.0900
21     C21    -6.4858    1.0140   -6.8373 C.ar     1 ZINC000129195982   -0.1200
22     C22    -7.8276    0.8474   -7.1537 C.ar     1 ZINC000129195982    0.1700
23     N23    -8.2234    0.7304   -8.4909 N.am     1 ZINC000129195982   -0.6900
24     C24    -7.4134    0.1268   -9.3831 C.2      1 ZINC000129195982    0.7000
25     N25    -7.7447    0.1084  -10.6894 N.am     1 ZINC000129195982   -0.8600
26     O26    -6.3838   -0.4011   -9.0096 O.2      1 ZINC000129195982   -0.5700
27     C27    -8.7758    0.7966   -6.1404 C.ar     1 ZINC000129195982   -0.1400
28     C28    -8.3813    0.9071   -4.8214 C.ar     1 ZINC000129195982   -0.0800
29     H29     0.8884    2.8867   -0.0657 H        1 ZINC000129195982    0.0800
30     H30    -0.6581    2.6834   -0.9230 H        1 ZINC000129195982    0.0700
31     H31    -0.6101    2.6119    0.8548 H        1 ZINC000129195982    0.0700
32     H32     0.7046    0.6152   -1.0430 H        1 ZINC000129195982    0.0600
33     H33     0.7526    0.5437    0.7348 H        1 ZINC000129195982    0.0600
34     H34     1.0787   -1.2823   -0.2288 H        1 ZINC000129195982    0.1300
35     H35     1.8477   -4.1616    0.6679 H        1 ZINC000129195982    0.0800
36     H36     1.3853   -4.8801   -0.8935 H        1 ZINC000129195982    0.0700
37     H37     2.2411   -3.3200   -0.8503 H        1 ZINC000129195982    0.0700
38     H38    -0.9707   -5.0204   -0.3312 H        1 ZINC000129195982    0.1300
39     H39    -3.1311   -3.8445   -0.2366 H        1 ZINC000129195982    0.1300
40     H40    -4.3413   -1.8721    0.2222 H        1 ZINC000129195982    0.0700
41     H41    -3.4966   -0.3471    0.5815 H        1 ZINC000129195982    0.0800
42     H42    -3.3092   -0.8359   -2.1939 H        1 ZINC000129195982    0.4000
43     H43    -4.7712    0.3075   -3.6097 H        1 ZINC000129195982    0.3900
44     H44    -5.6225    3.0892   -3.3756 H        1 ZINC000129195982    0.0600
45     H45    -7.3273    3.2296   -2.8832 H        1 ZINC000129195982    0.0700
46     H46    -6.0907    2.7700   -1.6883 H        1 ZINC000129195982    0.0700
47     H47    -5.0549    1.2584   -5.2698 H        1 ZINC000129195982    0.1200
48     H48    -5.7460    1.0543   -7.6231 H        1 ZINC000129195982    0.1400
49     H49    -9.0808    1.0837   -8.7757 H        1 ZINC000129195982    0.4100
50     H50    -8.5661    0.5295  -10.9874 H        1 ZINC000129195982    0.4000
51     H51    -7.1617   -0.3260  -11.3316 H        1 ZINC000129195982    0.4200
52     H52    -9.8202    0.6674   -6.3833 H        1 ZINC000129195982    0.1300
53     H53    -9.1183    0.8677   -4.0329 H        1 ZINC000129195982    0.1300
@<TRIPOS>BOND
1     1     2     1
2     1     29    1
3     1     30    1
4     1     31    1
5     2     3     1
6     2     32    1
7     2     33    1
8     3     4     1
9     4     10    ar
10    4     5     ar
11    5     6     ar
12    5     34    1
13    6     7     1
14    6     8     ar
15    7     35    1
16    7     36    1
17    7     37    1
18    8     9     ar
19    8     38    1
20    9     10    ar
21    9     39    1
22    10    11    1
23    11    12    1
24    11    40    1
25    11    41    1
26    12    13    am
27    12    42    1
28    13    14    2
29    13    15    am
30    15    16    1
31    15    43    1
32    16    17    1
33    16    18    1
34    16    19    1
35    18    44    1
36    18    45    1
37    18    46    1
38    19    28    ar
39    19    20    ar
40    20    21    ar
41    20    47    1
42    21    22    ar
43    21    48    1
44    22    23    1
45    22    27    ar
46    23    24    am
47    23    49    1
48    24    25    am
49    24    26    2
50    25    50    1
51    25    51    1
52    27    28    ar
53    27    52    1
54    28    53    1
@<TRIPOS>SUBSTRUCTURE
1   ZINC000129195982 1     RESIDUE    1   A     ZIN   1

