@<TRIPOS>MOLECULE
ZINC000129198546
41    42    1     0     0
SMALL
USER_CHARGES
@<TRIPOS>ATOM
1      C1     -1.9508    1.5166    0.7424 C.3      1 ZINC000129198546    0.0400
2      O2     -2.0659    0.0696    0.7780 O.3      1 ZINC000129198546   -0.3600
3      C3     -1.1888   -0.6323    0.0339 C.2      1 ZINC000129198546    0.5100
4      O4     -0.3507   -0.0511   -0.6267 O.2      1 ZINC000129198546   -0.5100
5      C5     -1.2460   -2.1056    0.0211 C.ar     1 ZINC000129198546   -0.1500
6      C6     -2.2133   -2.7759    0.7760 C.ar     1 ZINC000129198546   -0.0400
7      C7     -2.2641   -4.1512    0.7614 C.ar     1 ZINC000129198546   -0.1400
8      C8     -1.3541   -4.8746   -0.0035 C.ar     1 ZINC000129198546    0.2100
9      N9     -1.4088   -6.2675   -0.0162 N.am     1 ZINC000129198546   -0.6800
10     C10    -2.5963   -6.8963    0.0883 C.2      1 ZINC000129198546    0.7000
11     O11    -3.6270   -6.2514    0.0963 O.2      1 ZINC000129198546   -0.5700
12     N12    -2.6413   -8.2399    0.1840 N.am     1 ZINC000129198546   -0.7300
13     C13    -3.9321   -8.9233    0.2976 C.3      1 ZINC000129198546    0.1100
14     C14    -3.7033  -10.4332    0.3909 C.3      1 ZINC000129198546    0.1400
15     H15    -3.0961  -10.6552    1.2685 H        1 ZINC000129198546    0.1200
16     O16    -3.0264  -10.8858   -0.7835 O.3      1 ZINC000129198546   -0.5500
17     C17    -5.0311  -11.1363    0.5078 C.ar     1 ZINC000129198546   -0.0900
18     C18    -5.7468  -11.4541   -0.6312 C.ar     1 ZINC000129198546   -0.1100
19     C19    -6.9650  -12.0995   -0.5260 C.ar     1 ZINC000129198546   -0.0800
20     C20    -7.4688  -12.4274    0.7193 C.ar     1 ZINC000129198546   -0.0700
21     Cl21   -8.9984  -13.2378    0.8517 Cl       1 ZINC000129198546   -0.0400
22     C22    -6.7516  -12.1089    1.8616 C.ar     1 ZINC000129198546    0.1200
23     F23    -7.2421  -12.4289    3.0791 F        1 ZINC000129198546   -0.1200
24     C24    -5.5297  -11.4679    1.7537 C.ar     1 ZINC000129198546   -0.1300
25     C25    -0.3900   -4.2109   -0.7560 C.ar     1 ZINC000129198546   -0.1600
26     C26    -0.3367   -2.8356   -0.7504 C.ar     1 ZINC000129198546   -0.0300
27     H27    -2.7143    1.9577    1.3833 H        1 ZINC000129198546    0.1000
28     H28    -0.9635    1.8114    1.0978 H        1 ZINC000129198546    0.0600
29     H29    -2.0884    1.8670   -0.2805 H        1 ZINC000129198546    0.0600
30     H30    -2.9197   -2.2151    1.3702 H        1 ZINC000129198546    0.1400
31     H31    -3.0108   -4.6696    1.3445 H        1 ZINC000129198546    0.1400
32     H32    -0.5922   -6.7842   -0.1004 H        1 ZINC000129198546    0.4100
33     H33    -1.8190   -8.7543    0.1776 H        1 ZINC000129198546    0.4000
34     H34    -4.4484   -8.5781    1.1934 H        1 ZINC000129198546    0.0800
35     H35    -4.5393   -8.7014   -0.5800 H        1 ZINC000129198546    0.0800
36     H36    -3.5100  -10.7207   -1.6044 H        1 ZINC000129198546    0.3800
37     H37    -5.3543  -11.1978   -1.6041 H        1 ZINC000129198546    0.1400
38     H38    -7.5233  -12.3474   -1.4167 H        1 ZINC000129198546    0.1500
39     H39    -4.9697  -11.2196    2.6432 H        1 ZINC000129198546    0.1500
40     H40     0.3146   -4.7755   -1.3485 H        1 ZINC000129198546    0.1400
41     H41     0.4118   -2.3211   -1.3347 H        1 ZINC000129198546    0.1400
@<TRIPOS>BOND
1     1     2     1
2     1     27    1
3     1     28    1
4     1     29    1
5     2     3     1
6     3     4     2
7     3     5     1
8     5     26    ar
9     5     6     ar
10    6     7     ar
11    6     30    1
12    7     8     ar
13    7     31    1
14    8     9     1
15    8     25    ar
16    9     10    am
17    9     32    1
18    10    11    2
19    10    12    am
20    12    13    1
21    12    33    1
22    13    14    1
23    13    34    1
24    13    35    1
25    14    15    1
26    14    16    1
27    14    17    1
28    16    36    1
29    17    24    ar
30    17    18    ar
31    18    19    ar
32    18    37    1
33    19    20    ar
34    19    38    1
35    20    21    1
36    20    22    ar
37    22    23    1
38    22    24    ar
39    24    39    1
40    25    26    ar
41    25    40    1
42    26    41    1
@<TRIPOS>SUBSTRUCTURE
1   ZINC000129198546 1     RESIDUE    1   A     ZIN   1

