@<TRIPOS>MOLECULE
ZINC000000706920
  49   51    0    0    0
SMALL
USER_CHARGES
NO_NAME
@<TRIPOS>ATOM
    1 C1       -0.0187     1.5258     0.0104 C.3    1 <0>      -0.1500
    2 C2        0.0021    -0.0041     0.0020 C.3    1 <0>       0.0600
    3 O3        0.6817    -0.4723    -1.1926 O.3    1 <0>      -0.3500
    4 C4        0.7867    -1.8073    -1.3538 C.2    1 <0>       0.5400
    5 O5        0.3225    -2.5592    -0.5180 O.2    1 <0>      -0.5300
    6 C6        1.4600    -2.3518    -2.5359 C.2    1 <0>      -0.2100
    7 C7        1.5989    -3.6995    -2.7678 C.2    1 <0>       0.0700
    8 N8        1.1292    -4.6977    -1.9312 N.am   1 <0>      -0.6200
    9 C9        1.3194    -5.9924    -2.2540 C.2    1 <0>       0.5100
   10 O10       1.9020    -6.2829    -3.2772 O.2    1 <0>      -0.4800
   11 C11       0.8081    -7.0789    -1.3435 C.3    1 <0>       0.0500
   12 O12       1.1300    -8.3559    -1.8982 O.3    1 <0>      -0.2900
   13 C13       0.7368    -9.4507    -1.1956 C.ar   1 <0>       0.1300
   14 C14       0.0502    -9.2990     0.0001 C.ar   1 <0>      -0.2200
   15 C15      -0.3489   -10.4137     0.7124 C.ar   1 <0>      -0.0700
   16 C16      -0.0641   -11.6792     0.2346 C.ar   1 <0>      -0.1500
   17 C17       0.6206   -11.8331    -0.9570 C.ar   1 <0>      -0.0500
   18 C18       0.9298   -13.2142    -1.4748 C.3    1 <0>      -0.1200
   19 C19       1.0163   -10.7221    -1.6759 C.ar   1 <0>      -0.1500
   20 S20       2.4310    -3.9681    -4.2325 S.3    1 <0>       0.3500
   21 C21       2.5897    -2.2443    -4.5288 C.2    1 <0>      -0.2200
   22 C22       3.2539    -1.6461    -5.7060 C.ar   1 <0>      -0.0100
   23 C23       3.3280    -0.2586    -5.8393 C.ar   1 <0>      -0.1100
   24 C24       3.9494     0.2932    -6.9405 C.ar   1 <0>      -0.1100
   25 C25       4.4980    -0.5255    -7.9117 C.ar   1 <0>      -0.1200
   26 C26       4.4280    -1.9015    -7.7856 C.ar   1 <0>      -0.1100
   27 C27       3.8150    -2.4663    -6.6863 C.ar   1 <0>      -0.1200
   28 C28       2.0161    -1.5494    -3.5363 C.2    1 <0>      -0.0600
   29 H29       1.0039     1.9031     0.0027 H      1 <0>       0.0700
   30 H30      -0.5459     1.8868    -0.8726 H      1 <0>       0.0700
   31 H31      -0.5289     1.8773     0.9072 H      1 <0>       0.0800
   32 H32       0.5293    -0.3651     0.8851 H      1 <0>       0.0700
   33 H33      -1.0205    -0.3814     0.0098 H      1 <0>       0.0700
   34 H34       0.6632    -4.4653    -1.1129 H      1 <0>       0.4300
   35 H35       1.2743    -6.9807    -0.3631 H      1 <0>       0.1000
   36 H36      -0.2734    -6.9890    -1.2421 H      1 <0>       0.1000
   37 H37      -0.1719    -8.3105     0.3742 H      1 <0>       0.1300
   38 H38      -0.8835   -10.2961     1.6434 H      1 <0>       0.1300
   39 H39      -0.3766   -12.5493     0.7930 H      1 <0>       0.1300
   40 H40       0.1129   -13.5551    -2.1108 H      1 <0>       0.0800
   41 H41       1.8535   -13.1871    -2.0529 H      1 <0>       0.0700
   42 H42       1.0467   -13.8993    -0.6351 H      1 <0>       0.0700
   43 H43       1.5507   -10.8427    -2.6066 H      1 <0>       0.1300
   44 H44       2.8995     0.3815    -5.0823 H      1 <0>       0.1300
   45 H45       4.0074     1.3666    -7.0449 H      1 <0>       0.1300
   46 H46       4.9827    -0.0884    -8.7721 H      1 <0>       0.1200
   47 H47       4.8580    -2.5349    -8.5474 H      1 <0>       0.1300
   48 H48       3.7614    -3.5405    -6.5889 H      1 <0>       0.1200
   49 H49       1.9929    -0.4700    -3.5082 H      1 <0>       0.1600
@<TRIPOS>BOND
   1    1    2 1
   2    1   29 1
   3    1   30 1
   4    1   31 1
   5    2    3 1
   6    2   32 1
   7    2   33 1
   8    3    4 1
   9    4    5 2
  10    4    6 1
  11    6   28 1
  12    6    7 2
  13    7    8 1
  14    7   20 1
  15    8    9 am
  16    8   34 1
  17    9   10 2
  18    9   11 1
  19   11   12 1
  20   11   35 1
  21   11   36 1
  22   12   13 1
  23   13   19 ar
  24   13   14 ar
  25   14   15 ar
  26   14   37 1
  27   15   16 ar
  28   15   38 1
  29   16   17 ar
  30   16   39 1
  31   17   18 1
  32   17   19 ar
  33   18   40 1
  34   18   41 1
  35   18   42 1
  36   19   43 1
  37   20   21 1
  38   21   22 1
  39   21   28 2
  40   22   27 ar
  41   22   23 ar
  42   23   24 ar
  43   23   44 1
  44   24   25 ar
  45   24   45 1
  46   25   26 ar
  47   25   46 1
  48   26   27 ar
  49   26   47 1
  50   27   48 1
  51   28   49 1

